version 2
1
9
.tran 0.1 0.1{return}{return}{return}{return}.kicad adjustpaths{return}.save all{return}.probe alli
1
1
V(Net-_C12-Pad2_)
 
